*SPEF "ieee 1481-1999"
*DESIGN "pes_rr_arbiter"
*DATE "11:11:11 Fri 11 11, 1111"
*VENDOR "OpenRCX"
*PROGRAM "Parallel Extraction"
*VERSION "1.0"
*DESIGN_FLOW "NAME_SCOPE LOCAL" "PIN_CAP NONE"
*DIVIDER /
*DELIMITER :
*BUS_DELIMITER []
*T_UNIT 1 NS
*C_UNIT 1 PF
*R_UNIT 1 OHM
*L_UNIT 1 HENRY

*NAME_MAP
*1 clk
*2 grant[0]
*3 grant[1]
*4 grant[2]
*5 grant[3]
*6 net10
*7 net11
*8 net12
*9 net13
*10 req[0]
*11 req[1]
*12 req[2]
*13 req[3]
*14 rst
*17 _00_
*18 _01_
*19 _02_
*20 _03_
*21 _04_
*22 _05_
*23 _06_
*24 _07_
*25 _08_
*26 _09_
*27 _10_
*28 _11_
*29 _12_
*30 _13_
*31 _14_
*32 _15_
*33 _16_
*34 _17_
*35 _18_
*36 _19_
*37 _20_
*38 _21_
*39 _22_
*40 _23_
*41 _24_
*42 clknet_0_clk
*43 clknet_1_0__leaf_clk
*44 clknet_1_1__leaf_clk
*45 net1
*46 net14
*47 net15
*48 net16
*49 net17
*50 net18
*51 net19
*52 net2
*53 net20
*54 net3
*55 net4
*56 net5
*57 net6
*58 net7
*59 net8
*60 net9
*61 round_robin_ptr\[0\]
*62 round_robin_ptr\[1\]
*63 round_robin_ptr\[2\]
*64 round_robin_ptr\[3\]
*65 ANTENNA_1
*66 ANTENNA__25__A
*67 ANTENNA__28__A
*68 ANTENNA__29__A
*69 ANTENNA__32__A
*70 ANTENNA__32__B
*71 ANTENNA__43__A
*72 ANTENNA__44__A
*73 ANTENNA__45__A
*74 ANTENNA__46__A
*75 ANTENNA__47__A
*76 ANTENNA__48__A
*77 ANTENNA__49__A
*78 ANTENNA_output6_A
*79 ANTENNA_output7_A
*80 ANTENNA_output8_A
*81 ANTENNA_output9_A
*82 FILLER_0_0_1005
*83 FILLER_0_0_1009
*84 FILLER_0_0_1021
*85 FILLER_0_0_1033
*86 FILLER_0_0_1037
*87 FILLER_0_0_1049
*88 FILLER_0_0_1061
*89 FILLER_0_0_1065
*90 FILLER_0_0_1077
*91 FILLER_0_0_1089
*92 FILLER_0_0_109
*93 FILLER_0_0_1093
*94 FILLER_0_0_1105
*95 FILLER_0_0_1117
*96 FILLER_0_0_1121
*97 FILLER_0_0_113
*98 FILLER_0_0_1133
*99 FILLER_0_0_1145
*100 FILLER_0_0_1149
*101 FILLER_0_0_1161
*102 FILLER_0_0_1173
*103 FILLER_0_0_1177
*104 FILLER_0_0_1189
*105 FILLER_0_0_1201
*106 FILLER_0_0_1205
*107 FILLER_0_0_1217
*108 FILLER_0_0_1229
*109 FILLER_0_0_1233
*110 FILLER_0_0_1245
*111 FILLER_0_0_125
*112 FILLER_0_0_1257
*113 FILLER_0_0_1261
*114 FILLER_0_0_1273
*115 FILLER_0_0_1285
*116 FILLER_0_0_1289
*117 FILLER_0_0_1301
*118 FILLER_0_0_1313
*119 FILLER_0_0_1317
*120 FILLER_0_0_1329
*121 FILLER_0_0_1341
*122 FILLER_0_0_1345
*123 FILLER_0_0_1357
*124 FILLER_0_0_1369
*125 FILLER_0_0_137
*126 FILLER_0_0_1373
*127 FILLER_0_0_1385
*128 FILLER_0_0_1397
*129 FILLER_0_0_1401
*130 FILLER_0_0_141
*131 FILLER_0_0_1413
*132 FILLER_0_0_1425
*133 FILLER_0_0_1429
*134 FILLER_0_0_1441
*135 FILLER_0_0_1453
*136 FILLER_0_0_1457
*137 FILLER_0_0_1469
*138 FILLER_0_0_1481
*139 FILLER_0_0_1485
*140 FILLER_0_0_1497
*141 FILLER_0_0_15
*142 FILLER_0_0_1509
*143 FILLER_0_0_1513
*144 FILLER_0_0_1525
*145 FILLER_0_0_153
*146 FILLER_0_0_1537
*147 FILLER_0_0_1541
*148 FILLER_0_0_1553
*149 FILLER_0_0_1565
*150 FILLER_0_0_1569
*151 FILLER_0_0_1581
*152 FILLER_0_0_1593
*153 FILLER_0_0_1597
*154 FILLER_0_0_1609
*155 FILLER_0_0_1621
*156 FILLER_0_0_1625
*157 FILLER_0_0_1637
*158 FILLER_0_0_1649
*159 FILLER_0_0_165
*160 FILLER_0_0_1653
*161 FILLER_0_0_1665
*162 FILLER_0_0_1677
*163 FILLER_0_0_1681
*164 FILLER_0_0_169
*165 FILLER_0_0_1693
*166 FILLER_0_0_1705
*167 FILLER_0_0_1709
*168 FILLER_0_0_181
*169 FILLER_0_0_193
*170 FILLER_0_0_197
*171 FILLER_0_0_209
*172 FILLER_0_0_221
*173 FILLER_0_0_225
*174 FILLER_0_0_237
*175 FILLER_0_0_249
*176 FILLER_0_0_253
*177 FILLER_0_0_265
*178 FILLER_0_0_27
*179 FILLER_0_0_277
*180 FILLER_0_0_281
*181 FILLER_0_0_29
*182 FILLER_0_0_293
*183 FILLER_0_0_3
*184 FILLER_0_0_305
*185 FILLER_0_0_309
*186 FILLER_0_0_321
*187 FILLER_0_0_333
*188 FILLER_0_0_337
*189 FILLER_0_0_349
*190 FILLER_0_0_361
*191 FILLER_0_0_365
*192 FILLER_0_0_377
*193 FILLER_0_0_389
*194 FILLER_0_0_393
*195 FILLER_0_0_405
*196 FILLER_0_0_41
*197 FILLER_0_0_417
*198 FILLER_0_0_421
*199 FILLER_0_0_433
*200 FILLER_0_0_445
*201 FILLER_0_0_449
*202 FILLER_0_0_461
*203 FILLER_0_0_473
*204 FILLER_0_0_477
*205 FILLER_0_0_489
*206 FILLER_0_0_501
*207 FILLER_0_0_505
*208 FILLER_0_0_517
*209 FILLER_0_0_529
*210 FILLER_0_0_53
*211 FILLER_0_0_533
*212 FILLER_0_0_545
*213 FILLER_0_0_557
*214 FILLER_0_0_561
*215 FILLER_0_0_57
*216 FILLER_0_0_573
*217 FILLER_0_0_585
*218 FILLER_0_0_589
*219 FILLER_0_0_601
*220 FILLER_0_0_613
*221 FILLER_0_0_617
*222 FILLER_0_0_629
*223 FILLER_0_0_641
*224 FILLER_0_0_645
*225 FILLER_0_0_657
*226 FILLER_0_0_669
*227 FILLER_0_0_673
*228 FILLER_0_0_685
*229 FILLER_0_0_69
*230 FILLER_0_0_697
*231 FILLER_0_0_701
*232 FILLER_0_0_713
*233 FILLER_0_0_725
*234 FILLER_0_0_729
*235 FILLER_0_0_741
*236 FILLER_0_0_753
*237 FILLER_0_0_757
*238 FILLER_0_0_769
*239 FILLER_0_0_781
*240 FILLER_0_0_785
*241 FILLER_0_0_797
*242 FILLER_0_0_809
*243 FILLER_0_0_81
*244 FILLER_0_0_813
*245 FILLER_0_0_825
*246 FILLER_0_0_837
*247 FILLER_0_0_841
*248 FILLER_0_0_85
*249 FILLER_0_0_853
*250 FILLER_0_0_865
*251 FILLER_0_0_869
*252 FILLER_0_0_881
*253 FILLER_0_0_893
*254 FILLER_0_0_897
*255 FILLER_0_0_909
*256 FILLER_0_0_921
*257 FILLER_0_0_925
*258 FILLER_0_0_937
*259 FILLER_0_0_949
*260 FILLER_0_0_953
*261 FILLER_0_0_965
*262 FILLER_0_0_97
*263 FILLER_0_0_977
*264 FILLER_0_0_981
*265 FILLER_0_0_993
*266 FILLER_0_100_1005
*267 FILLER_0_100_1017
*268 FILLER_0_100_1029
*269 FILLER_0_100_1035
*270 FILLER_0_100_1037
*271 FILLER_0_100_1049
*272 FILLER_0_100_1061
*273 FILLER_0_100_1073
*274 FILLER_0_100_1085
*275 FILLER_0_100_109
*276 FILLER_0_100_1091
*277 FILLER_0_100_1093
*278 FILLER_0_100_1105
*279 FILLER_0_100_1117
*280 FILLER_0_100_1129
*281 FILLER_0_100_1141
*282 FILLER_0_100_1147
*283 FILLER_0_100_1149
*284 FILLER_0_100_1161
*285 FILLER_0_100_1173
*286 FILLER_0_100_1185
*287 FILLER_0_100_1197
*288 FILLER_0_100_1203
*289 FILLER_0_100_1205
*290 FILLER_0_100_121
*291 FILLER_0_100_1217
*292 FILLER_0_100_1229
*293 FILLER_0_100_1241
*294 FILLER_0_100_1253
*295 FILLER_0_100_1259
*296 FILLER_0_100_1261
*297 FILLER_0_100_1273
*298 FILLER_0_100_1285
*299 FILLER_0_100_1297
*300 FILLER_0_100_1309
*301 FILLER_0_100_1315
*302 FILLER_0_100_1317
*303 FILLER_0_100_1329
*304 FILLER_0_100_133
*305 FILLER_0_100_1341
*306 FILLER_0_100_1353
*307 FILLER_0_100_1365
*308 FILLER_0_100_1371
*309 FILLER_0_100_1373
*310 FILLER_0_100_1385
*311 FILLER_0_100_139
*312 FILLER_0_100_1397
*313 FILLER_0_100_1409
*314 FILLER_0_100_141
*315 FILLER_0_100_1421
*316 FILLER_0_100_1427
*317 FILLER_0_100_1429
*318 FILLER_0_100_1441
*319 FILLER_0_100_1453
*320 FILLER_0_100_1465
*321 FILLER_0_100_1477
*322 FILLER_0_100_1483
*323 FILLER_0_100_1485
*324 FILLER_0_100_1497
*325 FILLER_0_100_15
*326 FILLER_0_100_1509
*327 FILLER_0_100_1521
*328 FILLER_0_100_153
*329 FILLER_0_100_1533
*330 FILLER_0_100_1539
*331 FILLER_0_100_1541
*332 FILLER_0_100_1553
*333 FILLER_0_100_1565
*334 FILLER_0_100_1577
*335 FILLER_0_100_1589
*336 FILLER_0_100_1595
*337 FILLER_0_100_1597
*338 FILLER_0_100_1609
*339 FILLER_0_100_1621
*340 FILLER_0_100_1633
*341 FILLER_0_100_1645
*342 FILLER_0_100_165
*343 FILLER_0_100_1651
*344 FILLER_0_100_1653
*345 FILLER_0_100_1665
*346 FILLER_0_100_1677
*347 FILLER_0_100_1689
*348 FILLER_0_100_1701
*349 FILLER_0_100_1707
*350 FILLER_0_100_1709
*351 FILLER_0_100_177
*352 FILLER_0_100_189
*353 FILLER_0_100_195
*354 FILLER_0_100_197
*355 FILLER_0_100_209
*356 FILLER_0_100_221
*357 FILLER_0_100_233
*358 FILLER_0_100_245
*359 FILLER_0_100_251
*360 FILLER_0_100_253
*361 FILLER_0_100_265
*362 FILLER_0_100_27
*363 FILLER_0_100_277
*364 FILLER_0_100_289
*365 FILLER_0_100_29
*366 FILLER_0_100_3
*367 FILLER_0_100_301
*368 FILLER_0_100_307
*369 FILLER_0_100_309
*370 FILLER_0_100_321
*371 FILLER_0_100_333
*372 FILLER_0_100_345
*373 FILLER_0_100_357
*374 FILLER_0_100_363
*375 FILLER_0_100_365
*376 FILLER_0_100_377
*377 FILLER_0_100_389
*378 FILLER_0_100_401
*379 FILLER_0_100_41
*380 FILLER_0_100_413
*381 FILLER_0_100_419
*382 FILLER_0_100_421
*383 FILLER_0_100_433
*384 FILLER_0_100_445
*385 FILLER_0_100_457
*386 FILLER_0_100_469
*387 FILLER_0_100_475
*388 FILLER_0_100_477
*389 FILLER_0_100_489
*390 FILLER_0_100_501
*391 FILLER_0_100_513
*392 FILLER_0_100_525
*393 FILLER_0_100_53
*394 FILLER_0_100_531
*395 FILLER_0_100_533
*396 FILLER_0_100_545
*397 FILLER_0_100_557
*398 FILLER_0_100_569
*399 FILLER_0_100_581
*400 FILLER_0_100_587
*401 FILLER_0_100_589
*402 FILLER_0_100_601
*403 FILLER_0_100_613
*404 FILLER_0_100_625
*405 FILLER_0_100_637
*406 FILLER_0_100_643
*407 FILLER_0_100_645
*408 FILLER_0_100_65
*409 FILLER_0_100_657
*410 FILLER_0_100_669
*411 FILLER_0_100_681
*412 FILLER_0_100_693
*413 FILLER_0_100_699
*414 FILLER_0_100_701
*415 FILLER_0_100_713
*416 FILLER_0_100_725
*417 FILLER_0_100_737
*418 FILLER_0_100_749
*419 FILLER_0_100_755
*420 FILLER_0_100_757
*421 FILLER_0_100_769
*422 FILLER_0_100_77
*423 FILLER_0_100_781
*424 FILLER_0_100_793
*425 FILLER_0_100_805
*426 FILLER_0_100_811
*427 FILLER_0_100_813
*428 FILLER_0_100_825
*429 FILLER_0_100_83
*430 FILLER_0_100_837
*431 FILLER_0_100_849
*432 FILLER_0_100_85
*433 FILLER_0_100_861
*434 FILLER_0_100_867
*435 FILLER_0_100_869
*436 FILLER_0_100_881
*437 FILLER_0_100_893
*438 FILLER_0_100_905
*439 FILLER_0_100_917
*440 FILLER_0_100_923
*441 FILLER_0_100_925
*442 FILLER_0_100_937
*443 FILLER_0_100_949
*444 FILLER_0_100_961
*445 FILLER_0_100_97
*446 FILLER_0_100_973
*447 FILLER_0_100_979
*448 FILLER_0_100_981
*449 FILLER_0_100_993
*450 FILLER_0_101_1001
*451 FILLER_0_101_1007
*452 FILLER_0_101_1009
*453 FILLER_0_101_1021
*454 FILLER_0_101_1033
*455 FILLER_0_101_1045
*456 FILLER_0_101_105
*457 FILLER_0_101_1057
*458 FILLER_0_101_1063
*459 FILLER_0_101_1065
*460 FILLER_0_101_1077
*461 FILLER_0_101_1089
*462 FILLER_0_101_1101
*463 FILLER_0_101_111
*464 FILLER_0_101_1113
*465 FILLER_0_101_1119
*466 FILLER_0_101_1121
*467 FILLER_0_101_113
*468 FILLER_0_101_1133
*469 FILLER_0_101_1145
*470 FILLER_0_101_1157
*471 FILLER_0_101_1169
*472 FILLER_0_101_1175
*473 FILLER_0_101_1177
*474 FILLER_0_101_1189
*475 FILLER_0_101_1201
*476 FILLER_0_101_1213
*477 FILLER_0_101_1225
*478 FILLER_0_101_1231
*479 FILLER_0_101_1233
*480 FILLER_0_101_1245
*481 FILLER_0_101_125
*482 FILLER_0_101_1257
*483 FILLER_0_101_1269
*484 FILLER_0_101_1281
*485 FILLER_0_101_1287
*486 FILLER_0_101_1289
*487 FILLER_0_101_1301
*488 FILLER_0_101_1313
*489 FILLER_0_101_1325
*490 FILLER_0_101_1337
*491 FILLER_0_101_1343
*492 FILLER_0_101_1345
*493 FILLER_0_101_1357
*494 FILLER_0_101_1369
*495 FILLER_0_101_137
*496 FILLER_0_101_1381
*497 FILLER_0_101_1393
*498 FILLER_0_101_1399
*499 FILLER_0_101_1401
*500 FILLER_0_101_1413
*501 FILLER_0_101_1425
*502 FILLER_0_101_1437
*503 FILLER_0_101_1449
*504 FILLER_0_101_1455
*505 FILLER_0_101_1457
*506 FILLER_0_101_1469
*507 FILLER_0_101_1481
*508 FILLER_0_101_149
*509 FILLER_0_101_1493
*510 FILLER_0_101_15
*511 FILLER_0_101_1505
*512 FILLER_0_101_1511
*513 FILLER_0_101_1513
*514 FILLER_0_101_1525
*515 FILLER_0_101_1537
*516 FILLER_0_101_1549
*517 FILLER_0_101_1561
*518 FILLER_0_101_1567
*519 FILLER_0_101_1569
*520 FILLER_0_101_1581
*521 FILLER_0_101_1593
*522 FILLER_0_101_1605
*523 FILLER_0_101_161
*524 FILLER_0_101_1617
*525 FILLER_0_101_1623
*526 FILLER_0_101_1625
*527 FILLER_0_101_1637
*528 FILLER_0_101_1649
*529 FILLER_0_101_1661
*530 FILLER_0_101_167
*531 FILLER_0_101_1673
*532 FILLER_0_101_1679
*533 FILLER_0_101_1681
*534 FILLER_0_101_169
*535 FILLER_0_101_1693
*536 FILLER_0_101_1705
*537 FILLER_0_101_1711
*538 FILLER_0_101_181
*539 FILLER_0_101_193
*540 FILLER_0_101_205
*541 FILLER_0_101_217
*542 FILLER_0_101_223
*543 FILLER_0_101_225
*544 FILLER_0_101_237
*545 FILLER_0_101_249
*546 FILLER_0_101_261
*547 FILLER_0_101_27
*548 FILLER_0_101_273
*549 FILLER_0_101_279
*550 FILLER_0_101_281
*551 FILLER_0_101_293
*552 FILLER_0_101_3
*553 FILLER_0_101_305
*554 FILLER_0_101_317
*555 FILLER_0_101_329
*556 FILLER_0_101_335
*557 FILLER_0_101_337
*558 FILLER_0_101_349
*559 FILLER_0_101_361
*560 FILLER_0_101_373
*561 FILLER_0_101_385
*562 FILLER_0_101_39
*563 FILLER_0_101_391
*564 FILLER_0_101_393
*565 FILLER_0_101_405
*566 FILLER_0_101_417
*567 FILLER_0_101_429
*568 FILLER_0_101_441
*569 FILLER_0_101_447
*570 FILLER_0_101_449
*571 FILLER_0_101_461
*572 FILLER_0_101_473
*573 FILLER_0_101_485
*574 FILLER_0_101_497
*575 FILLER_0_101_503
*576 FILLER_0_101_505
*577 FILLER_0_101_51
*578 FILLER_0_101_517
*579 FILLER_0_101_529
*580 FILLER_0_101_541
*581 FILLER_0_101_55
*582 FILLER_0_101_553
*583 FILLER_0_101_559
*584 FILLER_0_101_561
*585 FILLER_0_101_57
*586 FILLER_0_101_573
*587 FILLER_0_101_585
*588 FILLER_0_101_597
*589 FILLER_0_101_609
*590 FILLER_0_101_615
*591 FILLER_0_101_617
*592 FILLER_0_101_629
*593 FILLER_0_101_641
*594 FILLER_0_101_653
*595 FILLER_0_101_665
*596 FILLER_0_101_671
*597 FILLER_0_101_673
*598 FILLER_0_101_685
*599 FILLER_0_101_69
*600 FILLER_0_101_697
*601 FILLER_0_101_709
*602 FILLER_0_101_721
*603 FILLER_0_101_727
*604 FILLER_0_101_729
*605 FILLER_0_101_741
*606 FILLER_0_101_753
*607 FILLER_0_101_765
*608 FILLER_0_101_777
*609 FILLER_0_101_783
*610 FILLER_0_101_785
*611 FILLER_0_101_797
*612 FILLER_0_101_809
*613 FILLER_0_101_81
*614 FILLER_0_101_821
*615 FILLER_0_101_833
*616 FILLER_0_101_839
*617 FILLER_0_101_841
*618 FILLER_0_101_853
*619 FILLER_0_101_865
*620 FILLER_0_101_877
*621 FILLER_0_101_889
*622 FILLER_0_101_895
*623 FILLER_0_101_897
*624 FILLER_0_101_909
*625 FILLER_0_101_921
*626 FILLER_0_101_93
*627 FILLER_0_101_933
*628 FILLER_0_101_945
*629 FILLER_0_101_951
*630 FILLER_0_101_953
*631 FILLER_0_101_965
*632 FILLER_0_101_977
*633 FILLER_0_101_989
*634 FILLER_0_102_1005
*635 FILLER_0_102_1017
*636 FILLER_0_102_1029
*637 FILLER_0_102_1035
*638 FILLER_0_102_1037
*639 FILLER_0_102_1049
*640 FILLER_0_102_1061
*641 FILLER_0_102_1073
*642 FILLER_0_102_1085
*643 FILLER_0_102_109
*644 FILLER_0_102_1091
*645 FILLER_0_102_1093
*646 FILLER_0_102_1105
*647 FILLER_0_102_1117
*648 FILLER_0_102_1129
*649 FILLER_0_102_1141
*650 FILLER_0_102_1147
*651 FILLER_0_102_1149
*652 FILLER_0_102_1161
*653 FILLER_0_102_1173
*654 FILLER_0_102_1185
*655 FILLER_0_102_1197
*656 FILLER_0_102_1203
*657 FILLER_0_102_1205
*658 FILLER_0_102_121
*659 FILLER_0_102_1217
*660 FILLER_0_102_1229
*661 FILLER_0_102_1241
*662 FILLER_0_102_1253
*663 FILLER_0_102_1259
*664 FILLER_0_102_1261
*665 FILLER_0_102_1273
*666 FILLER_0_102_1285
*667 FILLER_0_102_1297
*668 FILLER_0_102_1309
*669 FILLER_0_102_1315
*670 FILLER_0_102_1317
*671 FILLER_0_102_1329
*672 FILLER_0_102_133
*673 FILLER_0_102_1341
*674 FILLER_0_102_1353
*675 FILLER_0_102_1365
*676 FILLER_0_102_1371
*677 FILLER_0_102_1373
*678 FILLER_0_102_1385
*679 FILLER_0_102_139
*680 FILLER_0_102_1397
*681 FILLER_0_102_1409
*682 FILLER_0_102_141
*683 FILLER_0_102_1421
*684 FILLER_0_102_1427
*685 FILLER_0_102_1429
*686 FILLER_0_102_1441
*687 FILLER_0_102_1453
*688 FILLER_0_102_1465
*689 FILLER_0_102_1477
*690 FILLER_0_102_1483
*691 FILLER_0_102_1485
*692 FILLER_0_102_1497
*693 FILLER_0_102_15
*694 FILLER_0_102_1509
*695 FILLER_0_102_1521
*696 FILLER_0_102_153
*697 FILLER_0_102_1533
*698 FILLER_0_102_1539
*699 FILLER_0_102_1541
*700 FILLER_0_102_1553
*701 FILLER_0_102_1565
*702 FILLER_0_102_1577
*703 FILLER_0_102_1589
*704 FILLER_0_102_1595
*705 FILLER_0_102_1597
*706 FILLER_0_102_1609
*707 FILLER_0_102_1621
*708 FILLER_0_102_1633
*709 FILLER_0_102_1645
*710 FILLER_0_102_165
*711 FILLER_0_102_1651
*712 FILLER_0_102_1653
*713 FILLER_0_102_1665
*714 FILLER_0_102_1677
*715 FILLER_0_102_1689
*716 FILLER_0_102_1701
*717 FILLER_0_102_1707
*718 FILLER_0_102_1709
*719 FILLER_0_102_177
*720 FILLER_0_102_189
*721 FILLER_0_102_195
*722 FILLER_0_102_197
*723 FILLER_0_102_209
*724 FILLER_0_102_221
*725 FILLER_0_102_233
*726 FILLER_0_102_245
*727 FILLER_0_102_251
*728 FILLER_0_102_253
*729 FILLER_0_102_265
*730 FILLER_0_102_27
*731 FILLER_0_102_277
*732 FILLER_0_102_289
*733 FILLER_0_102_29
*734 FILLER_0_102_3
*735 FILLER_0_102_301
*736 FILLER_0_102_307
*737 FILLER_0_102_309
*738 FILLER_0_102_321
*739 FILLER_0_102_333
*740 FILLER_0_102_345
*741 FILLER_0_102_357
*742 FILLER_0_102_363
*743 FILLER_0_102_365
*744 FILLER_0_102_377
*745 FILLER_0_102_389
*746 FILLER_0_102_401
*747 FILLER_0_102_41
*748 FILLER_0_102_413
*749 FILLER_0_102_419
*750 FILLER_0_102_421
*751 FILLER_0_102_433
*752 FILLER_0_102_445
*753 FILLER_0_102_457
*754 FILLER_0_102_469
*755 FILLER_0_102_475
*756 FILLER_0_102_477
*757 FILLER_0_102_489
*758 FILLER_0_102_501
*759 FILLER_0_102_513
*760 FILLER_0_102_525
*761 FILLER_0_102_53
*762 FILLER_0_102_531
*763 FILLER_0_102_533
*764 FILLER_0_102_545
*765 FILLER_0_102_557
*766 FILLER_0_102_569
*767 FILLER_0_102_581
*768 FILLER_0_102_587
*769 FILLER_0_102_589
*770 FILLER_0_102_601
*771 FILLER_0_102_613
*772 FILLER_0_102_625
*773 FILLER_0_102_637
*774 FILLER_0_102_643
*775 FILLER_0_102_645
*776 FILLER_0_102_65
*777 FILLER_0_102_657
*778 FILLER_0_102_669
*779 FILLER_0_102_681
*780 FILLER_0_102_693
*781 FILLER_0_102_699
*782 FILLER_0_102_701
*783 FILLER_0_102_713
*784 FILLER_0_102_725
*785 FILLER_0_102_737
*786 FILLER_0_102_749
*787 FILLER_0_102_755
*788 FILLER_0_102_757
*789 FILLER_0_102_769
*790 FILLER_0_102_77
*791 FILLER_0_102_781
*792 FILLER_0_102_793
*793 FILLER_0_102_805
*794 FILLER_0_102_811
*795 FILLER_0_102_813
*796 FILLER_0_102_825
*797 FILLER_0_102_83
*798 FILLER_0_102_837
*799 FILLER_0_102_849
*800 FILLER_0_102_85
*801 FILLER_0_102_861
*802 FILLER_0_102_867
*803 FILLER_0_102_869
*804 FILLER_0_102_881
*805 FILLER_0_102_893
*806 FILLER_0_102_905
*807 FILLER_0_102_917
*808 FILLER_0_102_923
*809 FILLER_0_102_925
*810 FILLER_0_102_937
*811 FILLER_0_102_949
*812 FILLER_0_102_961
*813 FILLER_0_102_97
*814 FILLER_0_102_973
*815 FILLER_0_102_979
*816 FILLER_0_102_981
*817 FILLER_0_102_993
*818 FILLER_0_103_1001
*819 FILLER_0_103_1007
*820 FILLER_0_103_1009
*821 FILLER_0_103_1021
*822 FILLER_0_103_1033
*823 FILLER_0_103_1045
*824 FILLER_0_103_105
*825 FILLER_0_103_1057
*826 FILLER_0_103_1063
*827 FILLER_0_103_1065
*828 FILLER_0_103_1077
*829 FILLER_0_103_1089
*830 FILLER_0_103_1101
*831 FILLER_0_103_111
*832 FILLER_0_103_1113
*833 FILLER_0_103_1119
*834 FILLER_0_103_1121
*835 FILLER_0_103_113
*836 FILLER_0_103_1133
*837 FILLER_0_103_1145
*838 FILLER_0_103_1157
*839 FILLER_0_103_1169
*840 FILLER_0_103_1175
*841 FILLER_0_103_1177
*842 FILLER_0_103_1189
*843 FILLER_0_103_1201
*844 FILLER_0_103_1213
*845 FILLER_0_103_1225
*846 FILLER_0_103_1231
*847 FILLER_0_103_1233
*848 FILLER_0_103_1245
*849 FILLER_0_103_125
*850 FILLER_0_103_1257
*851 FILLER_0_103_1269
*852 FILLER_0_103_1281
*853 FILLER_0_103_1287
*854 FILLER_0_103_1289
*855 FILLER_0_103_1301
*856 FILLER_0_103_1313
*857 FILLER_0_103_1325
*858 FILLER_0_103_1337
*859 FILLER_0_103_1343
*860 FILLER_0_103_1345
*861 FILLER_0_103_1357
*862 FILLER_0_103_1369
*863 FILLER_0_103_137
*864 FILLER_0_103_1381
*865 FILLER_0_103_1393
*866 FILLER_0_103_1399
*867 FILLER_0_103_1401
*868 FILLER_0_103_1413
*869 FILLER_0_103_1425
*870 FILLER_0_103_1437
*871 FILLER_0_103_1449
*872 FILLER_0_103_1455
*873 FILLER_0_103_1457
*874 FILLER_0_103_1469
*875 FILLER_0_103_1481
*876 FILLER_0_103_149
*877 FILLER_0_103_1493
*878 FILLER_0_103_15
*879 FILLER_0_103_1505
*880 FILLER_0_103_1511
*881 FILLER_0_103_1513
*882 FILLER_0_103_1525
*883 FILLER_0_103_1537
*884 FILLER_0_103_1549
*885 FILLER_0_103_1561
*886 FILLER_0_103_1567
*887 FILLER_0_103_1569
*888 FILLER_0_103_1581
*889 FILLER_0_103_1593
*890 FILLER_0_103_1605
*891 FILLER_0_103_161
*892 FILLER_0_103_1617
*893 FILLER_0_103_1623
*894 FILLER_0_103_1625
*895 FILLER_0_103_1637
*896 FILLER_0_103_1649
*897 FILLER_0_103_1661
*898 FILLER_0_103_167
*899 FILLER_0_103_1673
*900 FILLER_0_103_1679
*901 FILLER_0_103_1681
*902 FILLER_0_103_169
*903 FILLER_0_103_1693
*904 FILLER_0_103_1705
*905 FILLER_0_103_1711
*906 FILLER_0_103_181
*907 FILLER_0_103_193
*908 FILLER_0_103_205
*909 FILLER_0_103_217
*910 FILLER_0_103_223
*911 FILLER_0_103_225
*912 FILLER_0_103_237
*913 FILLER_0_103_249
*914 FILLER_0_103_261
*915 FILLER_0_103_27
*916 FILLER_0_103_273
*917 FILLER_0_103_279
*918 FILLER_0_103_281
*919 FILLER_0_103_293
*920 FILLER_0_103_3
*921 FILLER_0_103_305
*922 FILLER_0_103_317
*923 FILLER_0_103_329
*924 FILLER_0_103_335
*925 FILLER_0_103_337
*926 FILLER_0_103_349
*927 FILLER_0_103_361
*928 FILLER_0_103_373
*929 FILLER_0_103_385
*930 FILLER_0_103_39
*931 FILLER_0_103_391
*932 FILLER_0_103_393
*933 FILLER_0_103_405
*934 FILLER_0_103_417
*935 FILLER_0_103_429
*936 FILLER_0_103_441
*937 FILLER_0_103_447
*938 FILLER_0_103_449
*939 FILLER_0_103_461
*940 FILLER_0_103_473
*941 FILLER_0_103_485
*942 FILLER_0_103_497
*943 FILLER_0_103_503
*944 FILLER_0_103_505
*945 FILLER_0_103_51
*946 FILLER_0_103_517
*947 FILLER_0_103_529
*948 FILLER_0_103_541
*949 FILLER_0_103_55
*950 FILLER_0_103_553
*951 FILLER_0_103_559
*952 FILLER_0_103_561
*953 FILLER_0_103_57
*954 FILLER_0_103_573
*955 FILLER_0_103_585
*956 FILLER_0_103_597
*957 FILLER_0_103_609
*958 FILLER_0_103_615
*959 FILLER_0_103_617
*960 FILLER_0_103_629
*961 FILLER_0_103_641
*962 FILLER_0_103_653
*963 FILLER_0_103_665
*964 FILLER_0_103_671
*965 FILLER_0_103_673
*966 FILLER_0_103_685
*967 FILLER_0_103_69
*968 FILLER_0_103_697
*969 FILLER_0_103_709
*970 FILLER_0_103_721
*971 FILLER_0_103_727
*972 FILLER_0_103_729
*973 FILLER_0_103_741
*974 FILLER_0_103_753
*975 FILLER_0_103_765
*976 FILLER_0_103_777
*977 FILLER_0_103_783
*978 FILLER_0_103_785
*979 FILLER_0_103_797
*980 FILLER_0_103_809
*981 FILLER_0_103_81
*982 FILLER_0_103_821
*983 FILLER_0_103_833
*984 FILLER_0_103_839
*985 FILLER_0_103_841
*986 FILLER_0_103_853
*987 FILLER_0_103_865
*988 FILLER_0_103_877
*989 FILLER_0_103_889
*990 FILLER_0_103_895
*991 FILLER_0_103_897
*992 FILLER_0_103_909
*993 FILLER_0_103_921
*994 FILLER_0_103_93
*995 FILLER_0_103_933
*996 FILLER_0_103_945
*997 FILLER_0_103_951
*998 FILLER_0_103_953
*999 FILLER_0_103_965
*1000 FILLER_0_103_977
*1001 FILLER_0_103_989
*1002 FILLER_0_104_1005
*1003 FILLER_0_104_1017
*1004 FILLER_0_104_1029
*1005 FILLER_0_104_1035
*1006 FILLER_0_104_1037
*1007 FILLER_0_104_1049
*1008 FILLER_0_104_1061
*1009 FILLER_0_104_1073
*1010 FILLER_0_104_1085
*1011 FILLER_0_104_109
*1012 FILLER_0_104_1091
*1013 FILLER_0_104_1093
*1014 FILLER_0_104_1105
*1015 FILLER_0_104_1117
*1016 FILLER_0_104_1129
*1017 FILLER_0_104_1141
*1018 FILLER_0_104_1147
*1019 FILLER_0_104_1149
*1020 FILLER_0_104_1161
*1021 FILLER_0_104_1173
*1022 FILLER_0_104_1185
*1023 FILLER_0_104_1197
*1024 FILLER_0_104_1203
*1025 FILLER_0_104_1205
*1026 FILLER_0_104_121
*1027 FILLER_0_104_1217
*1028 FILLER_0_104_1229
*1029 FILLER_0_104_1241
*1030 FILLER_0_104_1253
*1031 FILLER_0_104_1259
*1032 FILLER_0_104_1261
*1033 FILLER_0_104_1273
*1034 FILLER_0_104_1285
*1035 FILLER_0_104_1297
*1036 FILLER_0_104_1309
*1037 FILLER_0_104_1315
*1038 FILLER_0_104_1317
*1039 FILLER_0_104_1329
*1040 FILLER_0_104_133
*1041 FILLER_0_104_1341
*1042 FILLER_0_104_1353
*1043 FILLER_0_104_1365
*1044 FILLER_0_104_1371
*1045 FILLER_0_104_1373
*1046 FILLER_0_104_1385
*1047 FILLER_0_104_139
*1048 FILLER_0_104_1397
*1049 FILLER_0_104_1409
*1050 FILLER_0_104_141
*1051 FILLER_0_104_1421
*1052 FILLER_0_104_1427
*1053 FILLER_0_104_1429
*1054 FILLER_0_104_1441
*1055 FILLER_0_104_1453
*1056 FILLER_0_104_1465
*1057 FILLER_0_104_1477
*1058 FILLER_0_104_1483
*1059 FILLER_0_104_1485
*1060 FILLER_0_104_1497
*1061 FILLER_0_104_15
*1062 FILLER_0_104_1509
*1063 FILLER_0_104_1521
*1064 FILLER_0_104_153
*1065 FILLER_0_104_1533
*1066 FILLER_0_104_1539
*1067 FILLER_0_104_1541
*1068 FILLER_0_104_1553
*1069 FILLER_0_104_1565
*1070 FILLER_0_104_1577
*1071 FILLER_0_104_1589
*1072 FILLER_0_104_1595
*1073 FILLER_0_104_1597
*1074 FILLER_0_104_1609
*1075 FILLER_0_104_1621
*1076 FILLER_0_104_1633
*1077 FILLER_0_104_1645
*1078 FILLER_0_104_165
*1079 FILLER_0_104_1651
*1080 FILLER_0_104_1653
*1081 FILLER_0_104_1665
*1082 FILLER_0_104_1677
*1083 FILLER_0_104_1689
*1084 FILLER_0_104_1701
*1085 FILLER_0_104_1707
*1086 FILLER_0_104_1709
*1087 FILLER_0_104_177
*1088 FILLER_0_104_189
*1089 FILLER_0_104_195
*1090 FILLER_0_104_197
*1091 FILLER_0_104_209
*1092 FILLER_0_104_221
*1093 FILLER_0_104_233
*1094 FILLER_0_104_245
*1095 FILLER_0_104_251
*1096 FILLER_0_104_253
*1097 FILLER_0_104_265
*1098 FILLER_0_104_27
*1099 FILLER_0_104_277
*1100 FILLER_0_104_289
*1101 FILLER_0_104_29
*1102 FILLER_0_104_3
*1103 FILLER_0_104_301
*1104 FILLER_0_104_307
*1105 FILLER_0_104_309
*1106 FILLER_0_104_321
*1107 FILLER_0_104_333
*1108 FILLER_0_104_345
*1109 FILLER_0_104_357
*1110 FILLER_0_104_363
*1111 FILLER_0_104_365
*1112 FILLER_0_104_377
*1113 FILLER_0_104_389
*1114 FILLER_0_104_401
*1115 FILLER_0_104_41
*1116 FILLER_0_104_413
*1117 FILLER_0_104_419
*1118 FILLER_0_104_421
*1119 FILLER_0_104_433
*1120 FILLER_0_104_445
*1121 FILLER_0_104_457
*1122 FILLER_0_104_469
*1123 FILLER_0_104_475
*1124 FILLER_0_104_477
*1125 FILLER_0_104_489
*1126 FILLER_0_104_501
*1127 FILLER_0_104_513
*1128 FILLER_0_104_525
*1129 FILLER_0_104_53
*1130 FILLER_0_104_531
*1131 FILLER_0_104_533
*1132 FILLER_0_104_545
*1133 FILLER_0_104_557
*1134 FILLER_0_104_569
*1135 FILLER_0_104_581
*1136 FILLER_0_104_587
*1137 FILLER_0_104_589
*1138 FILLER_0_104_601
*1139 FILLER_0_104_613
*1140 FILLER_0_104_625
*1141 FILLER_0_104_637
*1142 FILLER_0_104_643
*1143 FILLER_0_104_645
*1144 FILLER_0_104_65
*1145 FILLER_0_104_657
*1146 FILLER_0_104_669
*1147 FILLER_0_104_681
*1148 FILLER_0_104_693
*1149 FILLER_0_104_699
*1150 FILLER_0_104_701
*1151 FILLER_0_104_713
*1152 FILLER_0_104_725
*1153 FILLER_0_104_737
*1154 FILLER_0_104_749
*1155 FILLER_0_104_755
*1156 FILLER_0_104_757
*1157 FILLER_0_104_769
*1158 FILLER_0_104_77
*1159 FILLER_0_104_781
*1160 FILLER_0_104_793
*1161 FILLER_0_104_805
*1162 FILLER_0_104_811
*1163 FILLER_0_104_813
*1164 FILLER_0_104_825
*1165 FILLER_0_104_83
*1166 FILLER_0_104_837
*1167 FILLER_0_104_849
*1168 FILLER_0_104_85
*1169 FILLER_0_104_861
*1170 FILLER_0_104_867
*1171 FILLER_0_104_869
*1172 FILLER_0_104_881
*1173 FILLER_0_104_893
*1174 FILLER_0_104_905
*1175 FILLER_0_104_917
*1176 FILLER_0_104_923
*1177 FILLER_0_104_925
*1178 FILLER_0_104_937
*1179 FILLER_0_104_949
*1180 FILLER_0_104_961
*1181 FILLER_0_104_97
*1182 FILLER_0_104_973
*1183 FILLER_0_104_979
*1184 FILLER_0_104_981
*1185 FILLER_0_104_993
*1186 FILLER_0_105_1001
*1187 FILLER_0_105_1007
*1188 FILLER_0_105_1009
*1189 FILLER_0_105_1021
*1190 FILLER_0_105_1033
*1191 FILLER_0_105_1045
*1192 FILLER_0_105_105
*1193 FILLER_0_105_1057
*1194 FILLER_0_105_1063
*1195 FILLER_0_105_1065
*1196 FILLER_0_105_1077
*1197 FILLER_0_105_1089
*1198 FILLER_0_105_1101
*1199 FILLER_0_105_111
*1200 FILLER_0_105_1113
*1201 FILLER_0_105_1119
*1202 FILLER_0_105_1121
*1203 FILLER_0_105_113
*1204 FILLER_0_105_1133
*1205 FILLER_0_105_1145
*1206 FILLER_0_105_1157
*1207 FILLER_0_105_1169
*1208 FILLER_0_105_1175
*1209 FILLER_0_105_1177
*1210 FILLER_0_105_1189
*1211 FILLER_0_105_1201
*1212 FILLER_0_105_1213
*1213 FILLER_0_105_1225
*1214 FILLER_0_105_1231
*1215 FILLER_0_105_1233
*1216 FILLER_0_105_1245
*1217 FILLER_0_105_125
*1218 FILLER_0_105_1257
*1219 FILLER_0_105_1269
*1220 FILLER_0_105_1281
*1221 FILLER_0_105_1287
*1222 FILLER_0_105_1289
*1223 FILLER_0_105_1301
*1224 FILLER_0_105_1313
*1225 FILLER_0_105_1325
*1226 FILLER_0_105_1337
*1227 FILLER_0_105_1343
*1228 FILLER_0_105_1345
*1229 FILLER_0_105_1357
*1230 FILLER_0_105_1369
*1231 FILLER_0_105_137
*1232 FILLER_0_105_1381
*1233 FILLER_0_105_1393
*1234 FILLER_0_105_1399
*1235 FILLER_0_105_1401
*1236 FILLER_0_105_1413
*1237 FILLER_0_105_1425
*1238 FILLER_0_105_1437
*1239 FILLER_0_105_1449
*1240 FILLER_0_105_1455
*1241 FILLER_0_105_1457
*1242 FILLER_0_105_1469
*1243 FILLER_0_105_1481
*1244 FILLER_0_105_149
*1245 FILLER_0_105_1493
*1246 FILLER_0_105_15
*1247 FILLER_0_105_1505
*1248 FILLER_0_105_1511
*1249 FILLER_0_105_1513
*1250 FILLER_0_105_1525
*1251 FILLER_0_105_1537
*1252 FILLER_0_105_1549
*1253 FILLER_0_105_1561
*1254 FILLER_0_105_1567
*1255 FILLER_0_105_1569
*1256 FILLER_0_105_1581
*1257 FILLER_0_105_1593
*1258 FILLER_0_105_1605
*1259 FILLER_0_105_161
*1260 FILLER_0_105_1617
*1261 FILLER_0_105_1623
*1262 FILLER_0_105_1625
*1263 FILLER_0_105_1637
*1264 FILLER_0_105_1649
*1265 FILLER_0_105_1661
*1266 FILLER_0_105_167
*1267 FILLER_0_105_1673
*1268 FILLER_0_105_1679
*1269 FILLER_0_105_1681
*1270 FILLER_0_105_169
*1271 FILLER_0_105_1693
*1272 FILLER_0_105_1705
*1273 FILLER_0_105_1711
*1274 FILLER_0_105_181
*1275 FILLER_0_105_193
*1276 FILLER_0_105_205
*1277 FILLER_0_105_217
*1278 FILLER_0_105_223
*1279 FILLER_0_105_225
*1280 FILLER_0_105_237
*1281 FILLER_0_105_249
*1282 FILLER_0_105_261
*1283 FILLER_0_105_27
*1284 FILLER_0_105_273
*1285 FILLER_0_105_279
*1286 FILLER_0_105_281
*1287 FILLER_0_105_293
*1288 FILLER_0_105_3
*1289 FILLER_0_105_305
*1290 FILLER_0_105_317
*1291 FILLER_0_105_329
*1292 FILLER_0_105_335
*1293 FILLER_0_105_337
*1294 FILLER_0_105_349
*1295 FILLER_0_105_361
*1296 FILLER_0_105_373
*1297 FILLER_0_105_385
*1298 FILLER_0_105_39
*1299 FILLER_0_105_391
*1300 FILLER_0_105_393
*1301 FILLER_0_105_405
*1302 FILLER_0_105_417
*1303 FILLER_0_105_429
*1304 FILLER_0_105_441
*1305 FILLER_0_105_447
*1306 FILLER_0_105_449
*1307 FILLER_0_105_461
*1308 FILLER_0_105_473
*1309 FILLER_0_105_485
*1310 FILLER_0_105_497
*1311 FILLER_0_105_503
*1312 FILLER_0_105_505
*1313 FILLER_0_105_51
*1314 FILLER_0_105_517
*1315 FILLER_0_105_529
*1316 FILLER_0_105_541
*1317 FILLER_0_105_55
*1318 FILLER_0_105_553
*1319 FILLER_0_105_559
*1320 FILLER_0_105_561
*1321 FILLER_0_105_57
*1322 FILLER_0_105_573
*1323 FILLER_0_105_585
*1324 FILLER_0_105_597
*1325 FILLER_0_105_609
*1326 FILLER_0_105_615
*1327 FILLER_0_105_617
*1328 FILLER_0_105_629
*1329 FILLER_0_105_641
*1330 FILLER_0_105_653
*1331 FILLER_0_105_665
*1332 FILLER_0_105_671
*1333 FILLER_0_105_673
*1334 FILLER_0_105_685
*1335 FILLER_0_105_69
*1336 FILLER_0_105_697
*1337 FILLER_0_105_709
*1338 FILLER_0_105_721
*1339 FILLER_0_105_727
*1340 FILLER_0_105_729
*1341 FILLER_0_105_741
*1342 FILLER_0_105_753
*1343 FILLER_0_105_765
*1344 FILLER_0_105_777
*1345 FILLER_0_105_783
*1346 FILLER_0_105_785
*1347 FILLER_0_105_797
*1348 FILLER_0_105_809
*1349 FILLER_0_105_81
*1350 FILLER_0_105_821
*1351 FILLER_0_105_833
*1352 FILLER_0_105_839
*1353 FILLER_0_105_841
*1354 FILLER_0_105_853
*1355 FILLER_0_105_865
*1356 FILLER_0_105_877
*1357 FILLER_0_105_889
*1358 FILLER_0_105_895
*1359 FILLER_0_105_897
*1360 FILLER_0_105_909
*1361 FILLER_0_105_921
*1362 FILLER_0_105_93
*1363 FILLER_0_105_933
*1364 FILLER_0_105_945